.git
.claude/
.opencode/
simulations/
cases/
*.md
!DualSPHysics/README.md
Modelfile.*
opencode.json
