 ┃ I should check if the tank type is rectangular, which it is by default. No need for other tank shapes here.       / __| |/ _ \/ __| | '_ ` _ \
 ┃ The boundary_method isn't specified, so default to "dbc".
 ┃                                                                                                                   \__ \ | (_) \__ \ | | | | | |
 ┃ Putting it all together, the parameters for xml_generator are set. Then the next steps would be gencase,
 ┃ solver, etc., but the first step is to generate the XML. So the tool call should be to xml_generator with         |___/_|\___/|___/_|_| |_| |_|
 ┃ the provided parameters.
                                                                                                                     ~^~._.~^~._.~^~._.~^~._.~^~
 ┃ xml_generator: {"amplitude":0.02,"dp":0.006,"fluid_height":0.2,"freq":2,"out_path":"simulations/sloshing_...
 ┃                                                                                                                     Sloshing Simulator unknown
 ┃   XML 케이스 파일이 생성되었습니다.
 ┃   - 케이스: simulations/sloshing_case.xml                                                                         DualSPHysics GPU Sloshing Analysis Agent
 ┃   - 측정 포인트: simulations/sloshing_case_probe_points.txt

 ┃ gencase: {"case_path":"simulations/sloshing_case","dp":0.006,"save_path":"simulations/sloshing_case"}             cwd:
 ┃
 ┃   해석 준비 완료. 파티클 데이터(.bi4)가 /data/sloshing_case에 생성되었습니다.                                     /home/imgyu/workspace/02_active/sim/slos
 ┃                                                                                                                   im-
 ┃   ==========                                                                                                      agent
 ┃   == CUDA ==
 ┃   ==========
 ┃                                                                                                                   Session: New Session
 ┃   CUDA Version 12.6.3
 ┃
 ┃   Container image Copyright (c) 2016-2023, NVIDIA CORPORATION & AFFILIATES. All rights reserved.                  LSP Configuration
 ┃
                                                                                                                     • gopls (gopls)
 ┃ solver: {"case_name":"sloshing_case","data_dir":"/data/sloshing_case","gpu":true,"out_dir":"/data/sloshin...
 ┃
 ┃   시뮬레이션이 백그라운드에서 시작되었습니다.                                                                     Modified Files:
 ┃   {"job_id": "5b8d03d4-8576-f33a-7982-68663c340233", "case_name": "sloshing_case", "status": "RUNNING"}
 ┃   진행 상황은 job_manager 도구로 확인하세요.                                                                      No modified files

 ▒ Generating...
 press esc to exit cancel
────────────────────────────────────────────────────────────────────────────────────────────────────────────────────────────────────────────────────────────────

>







 ctrl+? help  Context: 16.4K, Cost: $0.00                                                                                                 No diagnostics  Qwen3
