 ┃ Putting it all together, the parameters for xml_generator are set. Then the next steps would be gencase,          / __| |/ _ \/ __| | '_ ` _ \
 ┃ solver, etc., but the first step is to generate the XML. So the tool call should be to xml_generator with
 ┃ the provided parameters.                                                                                          \__ \ | (_) \__ \ | | | | | |

 ┃ xml_generator: {"amplitude":0.02,"dp":0.006,"fluid_height":0.2,"freq":2,"out_path":"simulations/sloshing_...      |___/_|\___/|___/_|_| |_| |_|
 ┃
 ┃   XML 케이스 파일이 생성되었습니다.                                                                               ~^~._.~^~._.~^~._.~^~._.~^~
 ┃   - 케이스: simulations/sloshing_case.xml
 ┃   - 측정 포인트: simulations/sloshing_case_probe_points.txt                                                         Sloshing Simulator unknown

 ┃ gencase: {"case_path":"simulations/sloshing_case","dp":0.006,"save_path":"simulations/sloshing_case"}             DualSPHysics GPU Sloshing Analysis Agent
 ┃
 ┃   해석 준비 완료. 파티클 데이터(.bi4)가 /data/sloshing_case에 생성되었습니다.
 ┃                                                                                                                   cwd:
 ┃   ==========
 ┃   == CUDA ==                                                                                                      /home/imgyu/workspace/02_active/sim/slos
 ┃   ==========                                                                                                      im-
 ┃                                                                                                                   agent
 ┃   CUDA Version 12.6.3
 ┃
 ┃   Container image Copyright (c) 2016-2023, NVIDIA CORPORATION & AFFILIATES. All rights reserved.                  Session: New Session
 ┃

 ┃ solver: {"case_name":"sloshing_case","data_dir":"/data/sloshing_case","gpu":true,"out_dir":"/data/sloshin...      LSP Configuration
 ┃
 ┃   시뮬레이션이 백그라운드에서 시작되었습니다.                                                                     • gopls (gopls)
 ┃   {"job_id": "5b8d03d4-8576-f33a-7982-68663c340233", "case_name": "sloshing_case", "status": "RUNNING"}
 ┃   진행 상황은 job_manager 도구로 확인하세요.
                                                                                                                     Modified Files:
 ┃ job_manager: {"action":"status","job_id":"5b8d03d4-8576-f33a-7982-68663c340233","work_dir":"/data/sloshin...
 ┃ Error: Job을 찾을 수 없습니다: 5b8d03d4-8576-f33a-7982-68663c340233                                               No modified files

 █ Generating...
 press esc to exit cancel
────────────────────────────────────────────────────────────────────────────────────────────────────────────────────────────────────────────────────────────────

>







 ctrl+? help  Context: 16.7K, Cost: $0.00                                                                                                 No diagnostics  Qwen3
