 ┃ time 1 second.                                                                                                    / __| |/ _ \/ __| | '_ ` _ \
 ┃
 ┃ First, I need to use the xml_generator tool. The required parameters are tank_length, tank_width,                 \__ \ | (_) \__ \ | | | | | |
 ┃ tank_height, fluid_height, freq, amplitude, dp, time_max, and out_path. The user provided all the necessary
 ┃ values except dp and out_path.                                                                                    |___/_|\___/|___/_|_| |_| |_|
 ┃
 ┃ For dp, the rule is min(L, W, H)/50, but with a minimum of 0.005m and maximum 0.05m. The tank dimensions are      ~^~._.~^~._.~^~._.~^~._.~^~
 ┃ 0.5, 0.3, 0.4. The minimum is 0.3m. So 0.3/50 = 0.006m, which is within the allowed range. So dp is 0.006.
 ┃                                                                                                                     Sloshing Simulator unknown
 ┃ The out_path is not specified, so I'll use the default simulations/sloshing_case. The XML file will be
 ┃ generated there.                                                                                                  DualSPHysics GPU Sloshing Analysis Agent
 ┃
 ┃ I should check if the tank type is rectangular, which it is by default. No need for other tank shapes here.
 ┃ The boundary_method isn't specified, so default to "dbc".                                                         cwd:
 ┃
 ┃ Putting it all together, the parameters for xml_generator are set. Then the next steps would be gencase,          /home/imgyu/workspace/02_active/sim/slos
 ┃ solver, etc., but the first step is to generate the XML. So the tool call should be to xml_generator with         im-
 ┃ the provided parameters.                                                                                          agent

 ┃ xml_generator: {"amplitude":0.02,"dp":0.006,"fluid_height":0.2,"freq":2,"out_path":"simulations/sloshing_...
 ┃                                                                                                                   Session: New Session
 ┃   XML 케이스 파일이 생성되었습니다.
 ┃   - 케이스: simulations/sloshing_case.xml
 ┃   - 측정 포인트: simulations/sloshing_case_probe_points.txt                                                       LSP Configuration

                                                                                                                     • gopls (gopls)


                                                                                                                     Modified Files:

                                                                                                                     No modified files

 █ Generating...
 press esc to exit cancel
────────────────────────────────────────────────────────────────────────────────────────────────────────────────────────────────────────────────────────────────

>







 ctrl+? help  Context: 14.5K, Cost: $0.00                                                                                                 No diagnostics  Qwen3
