 ┃ For dp, the rule is min(L, W, H)/50, but with a minimum of 0.005m and maximum 0.05m. The tank dimensions are      / __| |/ _ \/ __| | '_ ` _ \
 ┃ 0.5, 0.3, 0.4. The minimum is 0.3m. So 0.3/50 = 0.006m, which is within the allowed range. So dp is 0.006.
 ┃                                                                                                                   \__ \ | (_) \__ \ | | | | | |
 ┃ The out_path is not specified, so I'll use the default simulations/sloshing_case. The XML file will be
 ┃ generated there.                                                                                                  |___/_|\___/|___/_|_| |_| |_|
 ┃
 ┃ I should check if the tank type is rectangular, which it is by default. No need for other tank shapes here.       ~^~._.~^~._.~^~._.~^~._.~^~
 ┃ The boundary_method isn't specified, so default to "dbc".
 ┃                                                                                                                     Sloshing Simulator unknown
 ┃ Putting it all together, the parameters for xml_generator are set. Then the next steps would be gencase,
 ┃ solver, etc., but the first step is to generate the XML. So the tool call should be to xml_generator with         DualSPHysics GPU Sloshing Analysis Agent
 ┃ the provided parameters.

 ┃ xml_generator: {"amplitude":0.02,"dp":0.006,"fluid_height":0.2,"freq":2,"out_path":"simulations/sloshing_...      cwd:
 ┃
 ┃   XML 케이스 파일이 생성되었습니다.                                                                               /home/imgyu/workspace/02_active/sim/slos
 ┃   - 케이스: simulations/sloshing_case.xml                                                                         im-
 ┃   - 측정 포인트: simulations/sloshing_case_probe_points.txt                                                       agent

 ┃ gencase: {"case_path":"simulations/sloshing_case","dp":0.006,"save_path":"simulations/sloshing_case"}
 ┃                                                                                                                   Session: New Session
 ┃   해석 준비 완료. 파티클 데이터(.bi4)가 /data/sloshing_case에 생성되었습니다.
 ┃
 ┃   ==========                                                                                                      LSP Configuration
 ┃   == CUDA ==
 ┃   ==========                                                                                                      • gopls (gopls)
 ┃
 ┃   CUDA Version 12.6.3
 ┃                                                                                                                   Modified Files:
 ┃   Container image Copyright (c) 2016-2023, NVIDIA CORPORATION & AFFILIATES. All rights reserved.
 ┃                                                                                                                   No modified files

 ▒ Generating...
 press esc to exit cancel
────────────────────────────────────────────────────────────────────────────────────────────────────────────────────────────────────────────────────────────────

>







 ctrl+? help  Context: 14.8K, Cost: $0.00                                                                                                 No diagnostics  Qwen3
