 ┃ time 1 second.                                                                                                    / __| |/ _ \/ __| | '_ ` _ \
 ┃
 ┃ First, I need to use the xml_generator tool. The required parameters are tank_length, tank_width,                 \__ \ | (_) \__ \ | | | | | |
 ┃ tank_height, fluid_height, freq, amplitude, dp, time_max, and out_path. The user provided all the necessary
 ┃ values except dp and out_path.                                                                                    |___/_|\___/|___/_|_| |_| |_|
 ┃
 ┃ For dp, the rule is min(L, W, H)/50, but with a minimum of 0.005m and maximum 0.05m. The tank dimensions are      ~^~._.~^~._.~^~._.~^~._.~^~
 ┃ 0.5, 0.3, 0.4. The minimum is 0.3m. So 0.3/50 = 0.006m, which is within the allowed range. So dp is 0.006.
 ┃                                                                                                                     Sloshing Simulator unknown
 ┃ The out_path is not specified, so I'll use the default simulations/sloshing_case. The XML file will
                                                                                                                     DualSPHysics GPU Sloshing Analysis Agent


                                                                                                                     cwd:

                                                                                                                     /home/imgyu/workspace/02_active/sim/slos
                                                                                                                     im-
                                                                                                                     agent


                                                                                                                     Session: New Session


                                                                                                                     LSP Configuration

                                                                                                                     • gopls (gopls)


                                                                                                                     Modified Files:

                                                                                                                     No modified files

 ▓ Generating...
 press esc to exit cancel
────────────────────────────────────────────────────────────────────────────────────────────────────────────────────────────────────────────────────────────────

>







 ctrl+? help  Context: 0, Cost: $0.00                                                                                                     No diagnostics  Qwen3
